data/projects/lehigh1mg/circuit_control.dss
clear
set defaultbasefrequency=60
new object=circuit.lehigh basekv=115 pu=1.0001 phases=3 bus1=sourcebus angle=30 mvasc3=20000 mvasc1=21000
edit object=vsource.source basekv=115 bus1=sourcebus.1.2.3 pu=1.00 r1=0 x1=0.0001 r0=0 x0=0.0001
new object=vsource.secondsource basekv=4.16 bus1=680.1.2.3 pu=1.00 r1=0 x1=0.0001 r0=0 x0=0.0001
new object=transformer.sub phases=3 windings=2 xhl=0.008 buses=[sourcebus.1.2.3,650.1.2.3] conns=[delta,wye] kvs=[115,4.16] kvas=[5000,5000] %rs=[0.0005,0.0005]
new object=transformer.reg1 phases=1 bank=reg1 xhl=0.01 kvas=[1666,1666] buses=[650.1,rg60.1] kvs=[2.4,2.4] %loadloss=0.01
new object=regcontrol.reg1 transformer=reg1 winding=2 vreg=121 band=2 ptratio=20 ctprim=700 r=3 x=9
new object=transformer.reg2 phases=1 bank=reg1 xhl=0.01 kvas=[1666,1666] buses=[650.2,rg60.2] kvs=[2.4,2.4] %loadloss=0.01
new object=regcontrol.reg2 transformer=reg2 winding=2 vreg=121 band=2 ptratio=20 ctprim=700 r=3 x=9
new object=transformer.reg3 phases=1 bank=reg1 xhl=0.01 kvas=[1666,1666] buses=[650.3,rg60.3] kvs=[2.4,2.4] %loadloss=0.01
new object=regcontrol.reg3 transformer=reg3 winding=2 vreg=121 band=2 ptratio=20 ctprim=700 r=3 x=9
new object=transformer.xfm1 phases=3 windings=2 xhl=2 buses=[633.1.2.3,634.1.2.3] conns=[wye,wye] kvs=[4.16,0.480] kvas=[500,500] %rs=[0.55,0.55] xht=1 xlt=1
new object=linecode.mtx601 nphases=3 basefreq=60 rmatrix=[0.3465|0.1560,0.3375|0.1580,0.1535,0.3414] xmatrix=[1.0179|0.5017,1.0478|0.4236,0.3849,1.0348] units=mi
new object=linecode.mtx602 nphases=3 basefreq=60 rmatrix=[0.7526|0.1580,0.7475|0.1560,0.1535,0.7436] xmatrix=[1.1814|0.4236,1.1983|0.5017,0.3849,1.2112] units=mi
new object=linecode.mtx603 nphases=2 basefreq=60 rmatrix=[1.3238|0.2066,1.3294] xmatrix=[1.3569|0.4591,1.3471] units=mi
new object=linecode.mtx604 nphases=2 basefreq=60 rmatrix=[1.3238|0.2066,1.3294] xmatrix=[1.3569|0.4591,1.3471] units=mi
new object=linecode.mtx605 nphases=1 basefreq=60 rmatrix=[1.3292] xmatrix=[1.3475] units=mi
new object=linecode.mtx606 nphases=3 units=mi rmatrix=[0.791721|0.318476,0.781649|0.28345,0.318476,0.791721] xmatrix=[0.438352|0.0276838,0.396697|-0.0184204,0.0276838,0.438352] cmatrix=[383.948|0,383.948|0,0,383.948]
new object=linecode.mtx607 nphases=1 basefreq=60 rmatrix=[1.3425] xmatrix=[0.5124] cmatrix=[236] units=mi
new object=loadshape.solar_670_shape npts=8760 interval=1 useactual=yes mult=[0.0,0.0,0.0,0.0,0.0,0.0,0.0,0.0,331.51240580779955,771.7490867596103,1062.8825438965262,1223.109676438154,1286.0887246336367,1238.4896214253758,1096.8943685534782,851.6988841932896,461.40811714172287,30.82175096660128,0.0,0.0,0.0,0.0,0.0,0.0,0.0,0.0,0.0,0.0,0.0,0.0,0.0,0.0,122.46913643323902,410.1351221675994,703.2266424984088,867.716974152249,1006.4763889099438,1183.873528201352,719.8164582585783,781.8337308180845,396.86235792378994,14.041794051587477,0.0,0.0,0.0,0.0,0.0,0.0,0.0,0.0,0.0,0.0,0.0,0.0,0.0,0.0,155.4443010952864,681.2445017270544,968.2990403915556,1139.677430730134,1208.892718103508,1165.3543006541831,584.7967032689353,657.8714653846465,320.0935178237225,12.74531788961796,0.0,0.0,0.0,0.0,0.0,0.0,0.0,0.0,0.0,0.0,0.0,0.0,0.0,0.0,231.10941086158272,681.8448789351586,986.8983616443608,853.1855015101036,695.7629510024296,455.308623314918,1066.8969967034282,494.6665400310212,268.97810558751803,10.328832185414605,0.0,0.0,0.0,0.0,0.0,0.0,0.0,0.0,0.0,0.0,0.0,0.0,0.0,0.0,151.0332867702329,513.146046309541,648.5688745007207,854.6141648447903,828.3987787047947,685.7225863909741,697.0346827675357,532.0305792946128,257.522101008146,20.72343237301852,0.0,0.0,0.0,0.0,0.0,0.0,0.0,0.0,0.0,0.0,0.0,0.0,0.0,0.0,124.3874783584837,163.92055935764563,436.6988833686966,264.485695220151,556.2566461604662,590.844754796998,489.43570476778615,263.1227998876537,178.8199421110482,31.156451492594417,0.0,0.0,0.0,0.0,0.0,0.0,0.0,0.0,0.0,0.0,0.0,0.0,0.0,0.0,361.8047569151939,845.6925074388914,1184.8353038373284,1383.478763677577,1453.7828045129363,1408.8840964044682,1257.4321083925747,989.9308525967928,563.2397754226264,58.41566047921819,0.0,0.0,0.0,0.0,0.0,0.0,0.0,0.0,0.0,0.0,0.0,0.0,0.0,0.0,100.67974149008283,596.3874996943784,812.3741770624503,873.1184155201732,564.1462017498296,574.3923355562537,634.8507111133717,384.8587207717327,256.1286007637388,13.283834105564113,0.0,0.0,0.0,0.0,0.0,0.0,0.0,0.0,0.0,0.0,0.0,0.0,0.0,0.0,8.870866275495093,17.708522965726278,62.68667361149245,235.39409852896563,306.8787075620403,219.15656483992905,93.7167984464163,46.85742247070039,107.13802907140564,2.1820651023404576,0.0,0.0,0.0,0.0,0.0,0.0,0.0,0.0,0.0,0.0,0.0,0.0,0.0,0.0,5.952980950640544,156.02253857988154,171.74109110312725,176.89639083909546,203.32731369913697,322.8700996191208,478.2518885539104,355.6368904128457,135.51138708521663,5.7446070823179705,0.0,0.0,0.0,0.0,0.0,0.0,0.0,0.0,0.0,0.0,0.0,0.0,0.0,0.0,322.156419120116,792.317541068064,1122.5849130126362,1319.8505006486018,1395.380818568827,1357.568775488342,1212.0678149220732,962.0185217666456,556.030690747004,67.64271583587718,0.0,0.0,0.0,0.0,0.0,0.0,0.0,0.0,0.0,0.0,0.0,0.0,0.0,0.0,334.9974587554947,797.0697676024957,1113.652185744983,1304.9693506086774,1209.8655636012388,1141.888147239369,1202.7652240381474,948.3531030147155,550.8773445160512,74.58417032437293,0.0,0.0,0.0,0.0,0.0,0.0,0.0,0.0,0.0,0.0,0.0,0.0,0.0,0.0,144.15890262060347,468.9584140267236,888.6084079566026,938.3042732148596,1026.3090229958834,1121.845185780091,950.278607791684,772.7063042172172,498.6386668959203,69.92896787237892,0.0,0.0,0.0,0.0,0.0,0.0,0.0,0.0,0.0,0.0,0.0,0.0,0.0,0.0,149.5264832349253,613.7235543704782,640.991879713841,1219.2593180525562,1305.323586184826,1277.8364682797242,1143.1930885897389,897.169318102968,490.5498537949733,73.36974137305543,0.0,0.0,0.0,0.0,0.0,0.0,0.0,0.0,0.0,0.0,0.0,0.0,0.0,0.0,173.59106035282858,439.1309971130242,718.3337479517955,775.3070705612183,842.5421550171895,810.6596508271587,650.5647054582478,419.2006877763085,383.1285664963168,65.27702126207744,0.0,0.0,0.0,0.0,0.0,0.0,0.0,0.0,0.0,0.0,0.0,0.0,0.0,0.0,133.65034797376066,633.8446560303767,1101.7149677634534,1285.6504883418206,1361.601461008722,1330.092727444995,1191.5788031509176,706.1002483762448,567.8546054376329,106.28499854796009,0.0,0.0,0.0,0.0,0.0,0.0,0.0,0.0,0.0,0.0,0.0,0.0,0.0,0.0,17.62387108172023,418.2369586353165,392.02352600033663,401.5038858406753,584.5883294006127,942.1390035603335,476.5236877835101,347.34881980031525,45.24643200123148,0.7136804990048171,0.0,0.0,0.0,0.0,0.0,0.0,0.0,0.0,0.0,0.0,0.0,0.0,0.0,0.0,228.25143302387087,253.5831837285108,134.11137515742436,165.95220457379074,1320.5088318388337,1290.8591838815469,637.8968766009123,916.282411174856,540.3739992159163,107.51245086604774,0.0,0.0,0.0,0.0,0.0,0.0,0.0,0.0,0.0,0.0,0.0,0.0,0.0,0.0,0.0,116.64443564528456,439.1889510951513,1166.6924515898172,1263.1942970200323,474.7915800030788,312.61875646598867,362.8856963571172,135.8154826992999,112.18263018982744,0.0,0.0,0.0,0.0,0.0,0.0,0.0,0.0,0.0,0.0,0.0,0.0,0.0,0.0,354.5885093878477,838.8161697842464,1161.48440721843,1346.5536118741395,1413.8245105887288,1382.9695500368637,1255.8211179231057,1011.7228522133032,611.4991633261346,137.39261241516638,0.0,0.0,0.0,0.0,0.0,0.0,0.0,0.0,0.0,0.0,0.0,0.0,0.0,0.0,103.66860416383476,277.38859584768795,725.7492529907252,1282.010457329561,1371.5578249045104,1355.154243289154,1229.917641417256,987.059851392311,604.9373399789891,140.45440594283122,0.0,0.0,0.0,0.0,0.0,0.0,0.0,0.0,0.0,0.0,0.0,0.0,0.0,0.0,345.6759683386881,804.371969350525,1126.4997370637466,1331.3332031298526,1417.353842983442,1387.3603781434233,1249.8616252890802,997.6921280234702,604.4854291520645,142.4906093373459,0.0,0.0,0.0,0.0,0.0,0.0,0.0,0.0,0.0,0.0,0.0,0.0,0.0,0.0,341.78979569447205,814.8863845124143,1156.7875299927714,1368.6132416777768,1457.3427418195602,1426.2377326257076,1289.6981507339867,1039.3603900046,647.1753742563134,163.09683140943295,0.0,0.0,0.0,0.0,0.0,0.0,0.0,0.0,0.0,0.0,0.0,0.0,0.0,0.0,93.570285570252,321.75074124522547,1073.3084001643786,890.7995894156821,1348.2127888006582,1113.7941404427777,1175.1250815734963,810.2494147738985,504.33704102620425,108.0112458133449,0.0,0.0,0.0,0.0,0.0,0.0,0.0,0.0,0.0,0.0,0.0,0.0,0.0,0.0,97.14650208533816,576.7586812983919,626.7000370202664,949.2705992036736,1356.4546264611545,1342.011712713046,1007.714911089786,942.6351938342766,548.9212348271731,124.5802241866821,0.0,0.0,0.0,0.0,0.0,0.0,0.0,0.0,0.0,0.0,0.0,0.0,0.0,0.0,193.50639281775864,386.26329087789446,617.6585646400822,476.3244302719266,252.9652249752667,75.55896932711948,218.85767857255385,419.43120136814025,171.33801790159075,56.43480639347671,0.0,0.0,0.0,0.0,0.0,0.0,0.0,0.0,0.0,0.0,0.0,0.0,0.0,0.0,287.7037534979939,518.8326994097318,355.86935750969303,1051.9513809979917,1437.5986666276578,1437.2952221819123,1316.9371735021168,1069.991999816357,668.0381566537726,185.20920584848912,0.0,0.0,0.0,0.0,0.0,0.0,0.0,0.0,0.0,0.0,0.0,0.0,0.0,0.0,402.0554254233916,915.4977533269538,1263.8370001701396,1470.0066636668644,1545.1176291770903,1509.0806709873782,1358.016779305235,1104.1190812692253,707.7151458557447,205.91701018138343,0.0,0.0,0.0,0.0,0.0,0.0,0.0,0.0,0.0,0.0,0.0,0.0,0.0,0.0,204.6166270093829,857.1843262768813,949.4412053083628,1061.018900111716,1066.6528085764876,1116.5590012080827,957.604902768238,692.7649719719387,418.0357476187176,178.19286700106497,0.0,0.0,0.0,0.0,0.0,0.0,0.0,0.0,0.0,0.0,0.0,0.0,0.0,0.0,40.57429917243627,195.80111004266095,240.7219578746385,675.8476185374997,721.0523757650666,380.6137543729987,300.4490713876118,167.46551979248343,354.9407914589805,82.1494440811594,0.0,0.0,0.0,0.0,0.0,0.0,0.0,0.0,0.0,0.0,0.0,0.0,0.0,0.0,64.42399073863191,417.8937929209228,832.2074623167283,782.5448066437353,669.3014232304782,815.5023897606429,755.9237426288494,636.8999378746564,196.09608930000516,15.357805263712237,0.0,0.0,0.0,0.0,0.0,0.0,0.0,0.0,0.0,0.0,0.0,0.0,0.0,0.0,326.0953363997512,761.9281658782321,237.89328261215957,350.2732168085549,523.5582280422847,709.6269760976045,551.1430211981625,969.78109953,621.1123615075289,185.5699531080226,0.0,0.0,0.0,0.0,0.0,0.0,0.0,0.0,0.0,0.0,0.0,0.0,0.0,0.0,100.52736809887196,290.53959161219643,326.9483669231967,448.2011209001027,984.3705261542729,864.4533184396466,805.0986732163,418.9350110941972,259.79337617286205,179.63520487086026,0.0,0.0,0.0,0.0,0.0,0.0,0.0,0.0,0.0,0.0,0.0,0.0,0.0,0.0,346.034762093206,780.1986471200909,154.22140695556828,265.3830051906151,275.3348109080336,304.74482891674944,337.6737606267628,241.1543336514078,64.86678520881738,55.1871678568953,0.0,0.0,0.0,0.0,0.0,0.0,0.0,0.0,0.0,0.0,0.0,0.0,0.0,0.0,346.396160521078,200.09491406678305,513.2163724901,812.1104538853547,1371.4621031587494,1355.4531295565291,1226.8962203265785,976.7290657018808,614.0719294315799,189.98813028479967,0.0,0.0,0.0,0.0,0.0,0.0,0.0,0.0,0.0,0.0,0.0,0.0,0.0,0.0,93.25837593610665,35.23927697503986,1065.795871043011,1266.8564677558018,1356.334811486869,665.4419484881411,1231.9785892086336,1004.8947010157076,656.3959179295873,210.5031887894956,0.0,0.0,0.0,0.0,0.0,0.0,0.0,0.0,0.0,0.0,0.0,0.0,0.0,0.0,138.24759644362743,535.2584207485972,736.3216221347417,722.6412265110262,266.4593864541689,259.8018413612627,418.7930563964024,7.444156445823967,95.50881371399043,17.49103274066459,0.0,0.0,0.0,0.0,0.0,0.0,0.0,0.0,0.0,0.0,0.0,0.0,0.0,0.0,360.9315401732546,823.8217164534218,1148.2643876100394,1351.7779354539896,1445.7206893138684,1426.2422908040771,1292.493616411202,1059.4613054460049,688.5916340904405,228.0651988790576,0.0,0.0,0.0,0.0,0.0,0.0,0.0,0.0,0.0,0.0,0.0,0.0,0.0,0.0,28.601918100627355,188.2618830194148,763.9708809561319,909.564958594807,1118.8472067496,709.2948802449654,927.9708828510754,1041.1218003602644,692.1496178920486,236.70359805770528,0.0,0.0,0.0,0.0,0.0,0.0,0.0,0.0,0.0,0.0,0.0,0.0,0.0,0.0,398.5612561189575,408.643946672416,537.7621630101606,1349.8856402622855,1435.3391124930347,891.01447496739,1277.9868881659197,1054.3060057100363,707.520446522531,246.0927943306528,0.0,0.0,0.0,0.0,0.0,0.0,0.0,0.0,0.0,0.0,0.0,0.0,0.0,3.591193386871866,388.2597730037601,834.7483211735866,1138.5873749314717,1327.560333776537,1398.7922894942706,1387.8526614073355,1244.9720022352233,1001.2631351918484,641.350673468359,213.28367759492497,0.0,0.0,0.0,0.0,0.0,0.0,0.0,0.0,0.0,0.0,0.0,0.0,0.0,3.4785412643099747,133.4022528367891,293.45291875868145,390.1468588487565,599.7442724793875,1374.5727343118022,1353.5790670783033,1230.2367139031246,1007.8965870562298,362.0307123286562,135.45408427142794,0.0,0.0,0.0,0.0,0.0,0.0,0.0,0.0,0.0,0.0,0.0,0.0,0.0,0.0,0.0,16.2616269175614,75.75562216534891,115.60777565037976,252.05228696467844,304.87376024777404,196.9842829137301,167.959756561411,131.10037276016314,53.180267037613504,0.0,0.0,0.0,0.0,0.0,0.0,0.0,0.0,0.0,0.0,0.0,0.0,0.0,4.025522668656733,4.575108746357522,224.4362377285522,430.24710747075886,1095.7886847146915,1567.2124220710068,1558.357183835636,1419.8569340766676,1170.428204347838,787.9508061900291,287.9271042381021,0.0,0.0,0.0,0.0,0.0,0.0,0.0,0.0,0.0,0.0,0.0,0.0,0.0,13.531929242535677,454.417825027839,923.5911246062702,1232.25077757413,1434.674269619418,1528.9849335905535,1507.0646538113572,1376.8238232580245,862.0941355492322,748.364980555448,270.23681398585404,0.0,0.0,0.0,0.0,0.0,0.0,0.0,0.0,0.0,0.0,0.0,0.0,0.0,15.647575174348315,468.4908751596749,958.2743038202244,1285.384160491371,1489.3919451042486,1576.8366901141555,1545.9752178789054,1405.7780234297848,1151.9994891997217,783.6485369775064,296.3662459051664,0.0,0.0,0.0,0.0,0.0,0.0,0.0,0.0,0.0,0.0,0.0,0.0,0.0,18.05820036350509,464.8260997505515,924.5040626168586,1227.6821805111576,1414.774565194612,1493.619329957843,1466.6036579298216,1340.3590474699129,1107.8007870551496,749.4413618190017,284.2720963540565,0.0,0.0,0.0,0.0,0.0,0.0,0.0,0.0,0.0,0.0,0.0,0.0,0.0,15.869623577779558,436.1447391126263,890.385446352391,1194.5038513274958,1389.2832782470375,1472.201752135975,1442.5989882990607,1324.0244896984384,1078.0736500655803,714.8753929059793,241.04819321223096,0.0,0.0,0.0,0.0,0.0,0.0,0.0,0.0,0.0,0.0,0.0,0.0,0.0,12.770062286481268,391.9284554229145,815.0172693484544,681.258176262163,763.4851093756047,977.3828387137428,1368.2590061016283,1095.972314186151,798.3766624578814,596.9370857720792,193.0740170409893,0.0,0.0,0.0,0.0,0.0,0.0,0.0,0.0,0.0,0.0,0.0,0.0,0.0,17.174564928149678,424.3188709169816,866.4452423871429,1168.3145119210408,1354.4294929283942,1426.3503847482698,1430.2873485228888,1293.3870193716348,807.0502247268086,704.8018187092598,268.59977678284486,0.0,0.0,0.0,0.0,0.0,0.0,0.0,0.0,0.0,0.0,0.0,0.0,0.0,22.21656137321747,446.2782207964885,882.8885452711479,1192.2814137881678,1379.2318437738272,1074.9591119024965,872.4952474202211,742.4452091900714,1065.9130813439426,371.0142307267132,270.2192324407144,0.0,0.0,0.0,0.0,0.0,0.0,0.0,0.0,0.0,0.0,0.0,0.0,0.0,0.0,8.600631415014254,36.97854760719484,86.04212840876049,408.1614309335815,697.9072483411367,467.60463505096544,425.0937612398062,1031.5046951688391,304.5631529503057,265.70598468651514,0.0,0.0,0.0,0.0,0.0,0.0,0.0,0.0,0.0,0.0,0.0,0.0,0.0,27.216883044620744,468.65887659101,924.3529915623246,1227.01343062751,1413.4676703392267,1480.8577328597628,1447.5745655736007,1326.8316764057463,1099.8272307501186,759.5019126489511,201.6967881795128,0.0,0.0,0.0,0.0,0.0,0.0,0.0,0.0,0.0,0.0,0.0,0.0,0.0,0.0,0.0,119.28101624790364,376.2717638918271,565.7656574076991,253.19769207211408,158.05418379602665,217.63934261120525,251.01953397980463,108.63571624997412,95.27634661714306,0.0,0.0,0.0,0.0,0.0,0.0,0.0,0.0,0.0,0.0,0.0,0.0,0.0,30.19011767824848,43.07999493901522,133.7701629480461,169.62349166629906,725.0004094014408,939.0283724072806,1054.2018187758754,487.51736284254144,442.9149363280944,702.8678487438909,167.58924177679998,0.0,0.0,0.0,0.0,0.0,0.0,0.0,0.0,0.0,0.0,0.0,0.0,0.0,37.446086474243614,455.0273185926825,749.0806145594685,1176.0197868706064,1358.7805997663054,1426.8556913789516,1403.7639597587793,1294.2328870433569,277.60543490441114,730.9156225884481,290.9029435450839,0.0,0.0,0.0,0.0,0.0,0.0,0.0,0.0,0.0,0.0,0.0,0.0,0.0,0.0,37.84264799239502,171.13420221163773,219.79926799003647,302.930673925666,329.81741462266314,209.85853213437264,418.8575220619147,262.4162822403725,247.50192261518416,120.83861091361489,0.0,0.0,0.0,0.0,0.0,0.0,0.0,0.0,0.0,0.0,0.0,0.0,0.0,54.547069380141885,401.8757029619633,772.6620247701986,1366.0144288387912,1566.3776242610393,1429.8556239144584,1278.946059128542,1105.2202069296422,878.3557624667934,526.4207640583661,134.58803038121223,0.0,0.0,0.0,0.0,0.0,0.0,0.0,0.0,0.0,0.0,0.0,0.0,0.0,82.12730435765013,588.2661281765061,1044.3763397161276,1328.4732717871252,1491.095401477786,1560.83878637369,1532.4029161993824,1401.408683878396,1175.6453650759645,835.6124215587869,353.1533343697759,0.0,0.0,0.0,0.0,0.0,0.0,0.0,0.0,0.0,0.0,0.0,0.0,0.0,11.51591206651477,121.7867120144826,314.3821203266685,474.2439474303935,366.4749362389736,437.54930921878815,1138.50076954245,641.6651877758583,956.3956831636286,757.9931556086278,313.6775561844028,1.1252188889419013,0.0,0.0,0.0,0.0,0.0,0.0,0.0,0.0,0.0,0.0,0.0,0.0,93.22907336087376,567.3629733420594,1025.0131980022525,1323.187087215117,1492.5930886563544,1568.4463860724795,1538.240640354107,1365.0819557780478,1105.798444414237,757.2332421575892,281.12174393235455,0.4916320955735738,0.0,0.0,0.0,0.0,0.0,0.0,0.0,0.0,0.0,0.0,0.0,0.0,96.85412750134806,612.2037274684003,1071.2454988679851,1373.1036985401283,1547.7144885110604,1611.8389418139786,1581.2477044392092,1430.3759074169263,1178.7091121086446,820.2305230665498,350.4965675486632,2.973234633627732,0.0,0.0,0.0,0.0,0.0,0.0,0.0,0.0,0.0,0.0,0.0,0.0,105.93532115018124,595.3417233427346,1052.6891547255211,1355.641317206358,1536.845186604684,1609.4641308834396,1567.8837766280085,1436.5926115446623,1203.3590895628663,851.696930688274,372.22149682630703,6.73047594681915,0.0,0.0,0.0,0.0,0.0,0.0,0.0,0.0,0.0,0.0,0.0,0.0,63.85421844243738,543.0216496802901,974.5001164791676,739.0441569580439,738.6742933417713,1176.653373663975,1396.9488319279546,1202.1778701968128,1053.7766058508298,806.9063165239982,351.20568986929834,5.270556531884114,0.0,0.0,0.0,0.0,0.0,0.0,0.0,0.0,0.0,0.0,0.0,0.0,41.47616732126991,354.5422764358136,367.203593609764,321.0950147283479,343.9412558849027,226.09541465507075,532.4447223579041,175.62075206395818,268.4819153135749,115.29326134288038,15.111663631756196,0.0,0.0,0.0,0.0,0.0,0.0,0.0,0.0,0.0,0.0,0.0,0.0,0.0,106.55327990342538,445.6732854100145,1022.4586646102852,1363.3491968292778,1445.421151878155,1608.553146377867,1371.200984655008,1267.587729799946,995.2971308744376,697.4377559690724,166.55062827687962,0.0,0.0,0.0,0.0,0.0,0.0,0.0,0.0,0.0,0.0,0.0,0.0,0.0,86.89776360556007,639.2480509033164,1096.4776208168332,1407.8871576782126,1602.498583166419,1681.8786083039038,1650.7469012081729,1507.7737761319922,1263.8011859115218,904.7065916211984,375.4871060439248,4.260594438858137,0.0,0.0,0.0,0.0,0.0,0.0,0.0,0.0,0.0,0.0,0.0,0.0,98.304930559544,637.6266417404313,1068.9924564167472,1339.4330860925545,1499.5143569263566,1553.0709992636275,1532.1352860122556,1407.2731059349994,1161.1894279610856,845.7791128279131,378.3984796853943,9.335800469189836,0.0,0.0,0.0,0.0,0.0,0.0,0.0,0.0,0.0,0.0,0.0,0.0,93.19586377560988,532.2207204494572,736.3059940946176,996.98951738622,1024.658962426104,1052.1682200547148,999.2959556412156,783.2630453211096,786.3932115243177,685.7974707499027,274.80736455384204,6.090377470065742,0.0,0.0,0.0,0.0,0.0,0.0,0.0,0.0,0.0,0.0,0.0,0.0,75.61171396253863,311.77223762592826,551.1990216752741,1235.6759230346825,1172.091939452726,977.4805139645192,736.6960439293839,779.1509172634312,542.3079691812853,359.73078575704574,171.92537174292502,0.0,0.0,0.0,0.0,0.0,0.0,0.0,0.0,0.0,0.0,0.0,0.0,0.0,48.1532474643314,415.6446574797161,861.5953406019349,773.3665889124643,1616.389306163473,1662.1260679236009,1682.5388929991511,1535.5845247013326,1283.0451638194502,907.4734058915192,407.1084917302141,13.392579218094957,0.0,0.0,0.0,0.0,0.0,0.0,0.0,0.0,0.0,0.0,0.0,0.0,131.5190740018238,685.0909531026214,1125.074980739091,1412.8627349527526,1572.540932585018,1635.2451877416502,1599.3124164860992,1430.5133039363516,1209.5223978868453,869.1300094468114,396.4280286420051,13.266252560424396,0.0,0.0,0.0,0.0,0.0,0.0,0.0,0.0,0.0,0.0,0.0,0.0,181.63754751177248,696.7442616885612,1141.6022843387636,1434.713990888067,1608.376028589793,1672.8859735491076,1638.251631960542,1488.3416105742351,1231.4908641230911,873.6543270627654,398.8647005647022,13.255182698669758,0.0,0.0,0.0,0.0,0.0,0.0,0.0,0.0,0.0,0.0,0.0,0.0,164.2018640798811,701.9308175047778,1119.6051666956234,1393.4885233771224,1569.1756946116086,1643.025998218483,1625.6033381533616,1499.4791938360768,1257.832576920757,910.0591953637348,423.1513260860367,15.710087334845088,0.0,0.0,0.0,0.0,0.0,0.0,0.0,0.0,0.0,0.0,0.0,0.0,165.21703551961514,657.5745326222868,1052.7998533430678,1311.8723861652013,1465.1704364167654,1533.4578089077652,1506.0169239546976,1234.1873522128528,434.5207252763872,388.4193092466946,93.612611512255,2.421695050911418,0.0,0.0,0.0,0.0,0.0,0.0,0.0,0.0,0.0,0.0,0.0,0.0,30.06183751556239,361.7936870534392,549.7052415067368,443.0946587895226,708.1761730394085,794.47095476351,1147.581963191283,1359.0026481697364,887.3216993197108,705.9166189047857,340.7466240161821,12.749876067987511,0.0,0.0,0.0,0.0,0.0,0.0,0.0,0.0,0.0,0.0,0.0,0.0,17.947501745958732,88.18707691580599,198.96969517784115,927.4792507555018,980.4622137865474,966.6509333267918,935.900159709088,899.6242227391432,868.0842330951675,647.6670063518869,19.806587352399195,0.0,0.0,0.0,0.0,0.0,0.0,0.0,0.0,0.0,0.0,0.0,0.0,0.0,172.81356535664997,208.14140122572687,147.92721379554953,368.4329994328672,738.0537299151732,107.17123865666952,99.41061439833064,369.9267796014047,175.7177761463959,457.5838054896651,217.71487813847224,16.396418763632568,0.0,0.0,0.0,0.0,0.0,0.0,0.0,0.0,0.0,0.0,0.0,0.0,167.4433800689741,311.51567730055604,391.27728708440645,767.9671010495557,1153.8409932610225,1288.2714409043158,1291.3176063918563,1312.745602907141,1189.5100413394775,888.0549148688709,413.8506887071264,17.604336031564987,0.0,0.0,0.0,0.0,0.0,0.0,0.0,0.0,0.0,0.0,0.0,0.0,221.28783881186584,721.0172126747872,1153.1474989805113,1454.5095083787114,1647.572455557946,1724.7925553165996,1691.188362039553,1545.861914588005,1289.345868662854,931.4403077586464,436.53218427403857,22.13256065754993,0.0,0.0,0.0,0.0,0.0,0.0,0.0,0.0,0.0,0.0,0.0,0.0,241.23377618870575,766.7884863568561,1195.2123224797926,1484.502322050392,1657.9585905571494,1717.4369577648126,1674.7385474721634,1523.0469295116984,1272.408329009921,920.5091448601116,434.7290991447098,21.215064468592097,0.0,0.0,0.0,0.0,0.0,0.0,0.0,0.0,0.0,0.0,0.0,0.0,230.06819268830836,706.2395984006856,1101.3249179286872,1369.8406939958645,1514.012619983238,1559.595706015478,1520.5679316469984,1331.1873414220267,1170.7003927133342,702.9297097360492,331.5697086215883,18.55699531080226,0.0,0.0,0.0,0.0,0.0,0.0,0.0,0.0,0.0,0.0,0.0,0.0,135.85259929459485,471.5168544287217,1053.1918566828492,1236.6839316226929,1523.769726367443,1582.1515260930582,1535.7264793991274,1397.5602789978134,1179.9411226051018,864.9696949320836,412.2156050091326,21.03794668051791,0.0,0.0,0.0,0.0,0.0,0.0,0.0,0.0,0.0,0.0,0.0,0.0,138.93653254576896,393.89758847856285,439.1622531932725,606.8888914894977,720.1062281692144,722.6008540740388,374.77863489162814,544.3461260808155,394.46736077475737,165.49378206348106,298.44217056833,18.950952155599627,0.0,0.0,0.0,0.0,0.0,0.0,0.0,0.0,0.0,0.0,0.0,0.0,84.14592620702507,45.01201139936859,252.01451920104492,301.80936204675515,421.94992050148943,675.2452878243797,801.2372449689473,647.6136105481294,412.7450048683396,284.30074776095086,86.74929722438023,0.0,0.0,0.0,0.0,0.0,0.0,0.0,0.0,0.0,0.0,0.0,0.0,0.0,191.0912094502323,252.1167526301907,850.5046414604659,1340.771237028188,1488.7316604090015,725.3240400656794,656.7683862192139,652.4062095195485,588.9856691905575,395.896024109444,57.04820696835129,23.720760235171053,0.0,0.0,0.0,0.0,0.0,0.0,0.0,0.0,0.0,0.0,0.0,0.0,247.18936181270035,732.1274468664113,1111.985845966741,1362.744261442804,1514.0653646186572,1573.1543331598928,1530.061314854107,1403.3758634290289,1174.283120911805,855.4365904563258,417.6411396055816,33.278609107792136,0.0,0.0,0.0,0.0,0.0,0.0,0.0,0.0,0.0,0.0,0.0,0.0,106.1013690765008,708.0478928767224,1101.9213881267603,1108.2709305955525,1378.598256980459,1197.828716863918,1553.1243950673854,628.4412611574369,924.000709491192,441.0011525812192,250.84046268671497,35.4697905668717,0.0,0.0,0.0,0.0,0.0,0.0,0.0,0.0,0.0,0.0,0.0,0.0,8.341466416288053,35.16829962614248,66.87173252308365,493.9398361652463,206.6658537706677,120.78977328822675,869.02582251265,204.2226701645855,253.81825549871223,198.4155509217708,156.73817258390187,19.61774853423186,0.0,0.0,0.0,0.0,0.0,0.0,0.0,0.0,0.0,0.0,0.0,0.0,143.48494339024765,465.94936513447794,936.11309175578,1231.7858433804354,1583.2259538515966,1651.2808592457493,1600.9234069555682,1465.5005787643886,1229.1316812326763,898.9880312724208,444.6607186436344,42.84296966379829,0.0,0.0,0.0,0.0,0.0,0.0,0.0,0.0,0.0,0.0,0.0,0.0,14.832312414536242,14.71966029197435,206.1299422280756,203.18796367469625,497.6020069010156,347.52789109340495,704.1219989638574,298.54179932412177,234.5254399653959,197.4694033259186,96.82742959946924,2.607929195724719,0.0,0.0,0.0,0.0,0.0,0.0,0.0,0.0,0.0,0.0,0.0,0.0,262.3609329315993,397.4822701820496,1079.66250081154,1354.0218615484887,1536.233739534825,1616.0617684892034,1037.2603721129117,1004.7280019210498,1239.1407897638835,740.4109593005722,446.0503118780106,42.59031634845718,0.0,0.0,0.0,0.0,0.0,0.0,0.0,0.0,0.0,0.0,0.0,0.0,323.4568022921165,835.6208867471873,1230.2634118050037,1508.5271778996462,1661.518527863773,1701.6539395760544,1648.6358134547295,1500.0437567855636,1256.2574007099065,919.8136970745852,459.1615863738701,44.57963562259925,0.0,0.0,0.0,0.0,0.0,0.0,0.0,0.0,0.0,0.0,0.0,1.293871488615485,318.1953621169716,800.8758465410752,1169.3934978579484,1427.8636999669625,1578.9523360459684,1623.7097406249804,1590.033918830698,1443.452018822506,1200.9725576022347,875.1383397062252,434.5096554146326,45.275734576464345,0.0,0.0,0.0,0.0,0.0,0.0,0.0,0.0,0.0,0.0,0.0,0.2500486419870892,304.27729004970064,767.1850478750075,1149.447560481109,1431.9693163412558,1599.5982793867045,1667.8107675187762,1631.2750143817666,1486.8419698906516,1247.5551870340846,906.6138636846886,451.5422656449875,49.69977226828801,0.0,0.0,0.0,0.0,0.0,0.0,0.0,0.0,0.0,0.0,0.0,3.3522146066394143,312.0340072980085,591.2719212270592,1009.5179962191148,1165.748908667319,1541.843554771072,1275.0911425645745,1255.7768384760873,1167.8710662825167,893.6797069769033,637.3316624830874,324.0682493619757,42.4307801055227,0.0,0.0,0.0,0.0,0.0,0.0,0.0,0.0,0.0,0.0,0.0,3.232399632353934,312.8180139775721,779.7245965696569,1150.3403122732032,1402.059852216904,1556.8243335667878,1622.7193135821096,1597.6597512429662,1465.079272849374,799.6659757681273,895.5453042667287,445.0644430135095,51.69560322581516,0.0,0.0,0.0,0.0,0.0,0.0,0.0,0.0,0.0,0.0,0.0,4.431200543547244,316.648837313015,769.1170643353609,1125.8589874186546,1392.9565188445615,1562.2811242434857,1649.315633200132,1646.6816572708672,1518.113027010823,1283.0380009677267,946.6209952342844,476.19159193087097,56.09164067908297,0.0,0.0,0.0,0.0,0.0,0.0,0.0,0.0,0.0,0.0,0.0,5.532326203964349,361.531917381359,853.7194595476801,1227.0531518961589,1492.1476895128148,1650.3594560467604,1705.4580650096186,1651.0106243852683,1500.7352975610593,1254.137196599724,908.4371350325112,456.5250057712511,57.58021150091236,0.0,0.0,0.0,0.0,0.0,0.0,0.0,0.0,0.0,0.0,0.0,5.545349570734508,240.9218665545604,547.3284770711823,912.3408892218667,1456.8465515456166,1612.2088054302512,1658.2750583696643,1608.6111003599942,1462.263620953665,1236.8988171744006,906.500560393788,463.1135270202754,59.31036577632824,0.0,0.0,0.0,0.0,0.0,0.0,0.0,0.0,0.0,0.0,0.0,8.254861027266482,337.5604573358624,789.08514143571,1141.4453527691833,1391.350737721801,1528.4066961059582,1563.5990889606255,1518.0160029283857,1188.0279822010332,1147.2055878916256,832.3513705195386,423.9333792605848,61.10042753888685,0.0,0.0,0.0,0.0,0.0,0.0,0.0,0.0,0.0,0.0,0.0,7.539227023246141,110.84252574917788,545.1327374337332,360.5063272482088,853.6465286937672,1094.459650135797,1092.6253089262195,1319.586777471506,556.9143261823592,335.996350986766,557.5947970961001,221.6427255563528,57.83286481625348,0.0,0.0,0.0,0.0,0.0,0.0,0.0,0.0,0.0,0.0,0.0,10.162133090756546,331.9109208309665,763.2220373668475,711.9711821162334,926.9452927179252,1039.5622521895375,652.0604391318008,732.6392651804788,392.4226921918421,290.08051793354826,66.78773180741612,50.72796707479221,1.2626154083670988,0.0,0.0,0.0,0.0,0.0,0.0,0.0,0.0,0.0,0.0,0.0,10.825022459357736,53.29096565515987,64.94427424109985,192.075124809718,384.7857899178197,384.5865324062363,436.2534842251571,603.0209515587599,248.2370916693598,302.98797673945467,197.69145172934984,88.48596318318118,9.2517997535223,0.0,0.0,0.0,0.0,0.0,0.0,0.0,0.0,0.0,0.0,0.0,15.656691531087429,55.38707653681728,173.85478352992433,341.65695735341643,471.3729462259115,410.2327974183757,415.4519116515176,664.7458495342759,711.1800125849462,757.7828282352899,363.4040263545696,89.07722403454648,69.20486867995798,0.0,0.0,0.0,0.0,0.0,0.0,0.0,0.0,0.0,0.0,0.0,18.99523160261817,234.12041325884388,350.1026107038658,486.9723349432102,501.4523652866136,766.0240147274477,927.574321332924,974.6199314534532,1128.0814249579828,1171.98970602358,840.2226933954238,423.9444491223396,71.84340278759258,0.0,0.0,0.0,0.0,0.0,0.0,0.0,0.0,0.0,0.0,0.0,26.37752705628388,378.488992084447,837.690299726966,1192.3016000066616,1446.772977348897,1603.5599875581872,1654.088045953058,1621.589536514798,1486.321035219845,1249.4852499894223,917.420653430568,473.5843139034848,71.6662849995184,0.0,0.0,0.0,0.0,0.0,0.0,0.0,0.0,0.0,0.0,0.0,29.153457683343667,414.0408298619706,889.2511111067101,1237.6899867056875,1473.6662297292796,1604.851254373449,1640.593233305817,1597.2963993100784,1449.2786731154763,1203.786255992928,873.0669732214311,451.5090560597236,71.86749601611737,0.0,0.0,0.0,0.0,0.0,0.0,0.0,0.0,0.0,0.0,0.0,31.84538759473593,412.5457473567562,875.1806656482282,1205.6980862347875,1447.86303314756,1576.5111059449018,1599.912793694204,1535.4803377671712,1414.4737254222214,1204.7213337270257,889.4686013317718,465.8386665169316,74.55291424412455,0.0,0.0,0.0,0.0,0.0,0.0,0.0,0.0,0.0,0.0,0.0,37.41287688897971,387.2517644157497,817.2104043125496,1140.350738792151,1204.8678466031895,1506.2962751719176,1321.7317259785516,1504.6169120269053,1152.221537603153,751.683334408485,849.2133746452043,434.18407124537856,78.1421541259809,0.0,0.0,0.0,0.0,0.0,0.0,0.0,0.0,0.0,0.0,0.0,28.37140450879551,224.578192426347,609.0117002730339,597.5133697516588,737.9762408828907,1032.018466987922,1589.1548415737122,1530.6174126151932,775.5909799568079,647.2769565171207,571.0407721179528,242.386344147865,54.2566483011673,0.0,0.0,0.0,0.0,0.0,0.0,0.0,0.0,0.0,0.0,0.0,44.52233280881055,268.82312752295314,798.8220616014208,989.5746635156288,1185.8009864833357,198.03005926537404,349.10306730425594,397.3272921174847,95.08164728392916,369.0848189397138,186.96410452076827,247.1626639108215,76.65097863079747,0.0,0.0,0.0,0.0,0.0,0.0,0.0,0.0,0.0,0.0,0.0,43.63348802674706,399.536055121704,325.64603024618066,372.3302419388379,1414.6905644789445,1563.7299737966655,1615.5232522732574,785.3519933510435,1448.0909420660375,1219.3875982152422,898.3791888759159,471.7076467519047,77.504009154243,0.0,0.0,0.0,0.0,0.0,0.0,0.0,0.0,0.0,0.0,0.0,46.61388551209838,420.5121408100636,864.1987116192902,1180.869688655814,1410.3303412842945,1542.592398360356,1583.491630533708,1545.2504675181456,1415.044800055093,1196.6969862915907,880.4557803584819,461.77798075799546,80.66998961606913,0.0,0.0,0.0,0.0,0.0,0.0,0.0,0.0,0.0,0.0,0.0,36.52207860190071,233.65743257016464,569.3522926162015,1126.6677384950815,1163.127956104824,1214.8945366795367,1541.1676420357005,1326.4084169857165,1364.5590676022257,1150.160589811775,844.9618965630854,444.84695278844777,82.99856759457388,0.0,0.0,0.0,0.0,0.0,0.0,0.0,0.0,0.0,0.0,0.0,53.34436145891754,401.8340281882989,820.8686680382876,908.30234318644,1031.6551150550345,1475.434151768329,1522.1079447675702,1484.5667877159044,1359.6779097367694,1152.398655391227,844.1928667553075,448.5468912878504,85.00546841385568,0.0,0.0,0.0,0.0,0.0,0.0,0.0,0.0,0.0,0.0,0.0,56.38792227310413,405.75927093282536,824.1342772559057,1145.0873372864587,1375.7135812408685,1506.53981213052,1559.9212901847322,1519.5221552953549,1380.982184267737,934.1478657101628,805.9471455613759,402.3810095926456,82.83186849991583,0.0,0.0,0.0,0.0,0.0,0.0,0.0,0.0,0.0,0.0,0.0,60.60619076995924,387.9315841611521,631.3122623619189,893.6907768386579,1044.134756262541,1098.9058275511295,981.6167352507222,345.9774592794173,162.23468452924828,72.77587584833609,470.9542449842508,168.45334216200013,36.73045247022328,0.0,0.0,0.0,0.0,0.0,0.0,0.0,0.0,0.0,0.0,0.0,61.989272320950334,399.3127043815957,805.8299352604444,1113.0316223183847,1327.7309398812265,1160.6841213304033,1457.0640417706784,1172.554920141405,838.4612830397597,1118.129619240564,828.7888285395611,442.922099179818,88.06270376315095,0.0,0.0,0.0,0.0,0.0,0.0,0.0,0.0,0.0,0.0,0.0,58.11872771685852,334.6165252774675,706.8048125185106,1017.78653178149,1112.0568233156382,1140.8293475209546,1293.7301850860288,1476.145878762318,1342.0097592080306,994.3933092205888,751.6169152379573,323.44377892534646,76.83916628062629,0.0,0.0,0.0,0.0,0.0,0.0,0.0,0.0,0.0,0.0,0.0,66.63470724786673,392.4865066890159,683.3386591036962,799.344949777243,1167.4992491612286,1354.8286591199,1539.763071929539,1500.39864353005,1375.8646522954025,1155.8127309900246,797.2312573504457,461.2459762254344,94.80685424507875,0.0,0.0,0.0,0.0,0.0,0.0,0.0,0.0,0.0,0.0,0.0,70.32813406388435,384.03434165518144,548.671186185186,974.606908086683,1116.6742580039986,1048.2533960036044,1204.8763117915903,1481.841648219248,1125.8440105468692,1149.584957000534,856.0812471114488,465.8210849717919,95.61755882652128,0.0,0.0,0.0,0.0,0.0,0.0,0.0,0.0,0.0,0.0,0.0,72.09149792456414,419.8277628862917,459.5001939098943,1133.9523586979712,832.1143452443216,1043.270655877341,920.27863126828,878.4794844511101,46.77277058669434,188.7763060068362,9.280451160416655,459.40056515410254,95.60844246978216,0.0,0.0,0.0,0.0,0.0,0.0,0.0,0.0,0.0,0.0,0.0,79.05248746321514,164.7625200193365,634.7660592293656,895.8578650692126,617.6898207203305,1528.68539615484,1581.5355208448295,1559.662125186006,1439.9799892415813,1229.8134544830946,473.1408682649608,501.9817651458207,104.30674913557264,0.0,0.0,0.0,0.0,0.0,0.0,0.0,0.0,0.0,0.0,0.0,81.64934679718522,477.8976529777621,935.4879701508124,1286.8688243031695,1539.5566515662315,1687.6720530116102,1737.7683867980493,1683.9727656805458,1540.2195409348328,1295.7794118473134,967.6478720530476,525.1223343913811,105.4124329743593,0.0,0.0,0.0,0.0,0.0,0.0,0.0,0.0,0.0,0.0,0.0,84.50732463489702,503.180566057014,956.6483364789696,1281.994829289437,1517.5061381193336,1641.601893062166,1679.165189837341,1646.5377490680569,1487.8831880639257,1251.0311236250404,919.5721136209988,496.04245873028873,111.12383047141334,0.0,0.0,0.0,0.0,0.0,0.0,0.0,0.0,0.0,0.0,0.0,92.44311317629456,473.6878496693075,902.3578274242,1234.6210303262994,1481.8169038223846,1620.6629239691013,1655.5414536846074,1611.7438712365563,1462.055247085343,1237.4347287169926,916.3110625817504,500.4912408189757,108.4963662255334,0.0,0.0,0.0,0.0,0.0,0.0,0.0,0.0,0.0,0.0,0.0,86.529853494303,472.0534171396524,885.8702450931763,1184.3078574831368,1382.4069405923926,1492.752624899289,1546.9851799719313,1526.8647294803714,1414.0126982385575,1210.9334796763924,907.402428542622,502.51572318339726,112.8116588048262,0.0,0.0,0.0,0.0,0.0,0.0,0.0,0.0,0.0,0.0,0.0,91.29510339550488,467.32072565537584,874.513869269596,1186.7692738026972,1417.335610269964,1545.96870619552,1589.7636839702177,1545.8130769626168,1423.7587347610074,1199.8160826330443,898.1395589273449,498.4680607912312,114.39139319404671,0.0,0.0,0.0,0.0,0.0,0.0,0.0,0.0,0.0,0.0,0.0,82.03028027521243,344.0806059093434,103.325438449441,704.7555857572257,767.502166855861,615.0044024923235,1244.639906382584,1107.9251602078043,514.636570636386,747.7913012492224,473.4176148088268,268.32693724901,80.19984607566631,0.0,0.0,0.0,0.0,0.0,0.0,0.0,0.0,0.0,0.0,0.0,91.5790127910944,427.218523528358,853.8125766200868,1148.5964834626786,1357.471751405904,1469.4772638076572,1501.3265584124242,1463.1277213388655,1339.6479716442618,1132.9912342303332,843.6569552127153,466.62527786984936,115.2092606272128,0.0,0.0,0.0,0.0,0.0,0.0,0.0,0.0,0.0,0.0,0.0,98.89423790589376,447.56753410673446,835.2334415857753,1130.4653522452606,1356.157693698795,1481.7088098781926,883.9232517610372,1483.3393353978165,1364.2530184831269,1153.64564275947,856.830090700733,473.7881295934378,113.50971126370683,0.0,0.0,0.0,0.0,0.0,0.0,0.0,0.0,0.0,0.0,0.0,94.23708194888422,440.4763109003818,832.2582534471319,1132.565370136949,1352.905759016286,1057.1242622790994,936.2876048705,1008.9508285962744,453.0047897332765,173.36966311773588,687.9508844453487,192.30108022318024,118.19096044924116,0.0,0.0,0.0,0.0,0.0,0.0,0.0,0.0,0.0,0.0,0.0,99.32856718767864,493.3746220474213,919.206808183096,1235.3770367673071,1457.3713932264543,1587.176592161325,1622.6704759567217,1577.0958551128815,1440.8929272521696,1217.2875803235536,908.9092320779296,507.06673870123,120.29162950926812,0.0,0.0,0.0,0.0,0.0,0.0,0.0,0.0,0.0,0.0,0.0,84.58676717219501,315.24622071186866,669.4186335314097,1193.2783525144237,1410.990625979542,1529.9994538619494,1568.0745689511914,1529.1333999717335,1402.7846025776632,1193.8963112676677,895.8663302576133,501.16910705936255,119.95432430992096,0.0,0.0,0.0,0.0,0.0,0.0,0.0,0.0,0.0,0.0,0.0,95.33820760930134,387.5662787232491,891.8544821240653,1196.6637767063269,1221.6784084301134,1509.9180734706997,1538.648271734013,1489.750738858767,1207.8449882468483,849.5630520429833,606.2800490929927,397.5376194908228,112.74328612928286,0.0,0.0,0.0,0.0,0.0,0.0,0.0,0.0,0.0,0.0,0.0,25.65538136887845,104.6922407919694,154.58020071008622,190.987022516071,217.19850164603537,606.2839561030237,921.2202206857626,779.6451540323588,537.4802071195867,329.09071075688814,84.06843717474261,12.920482172676625,0.0,0.0,0.0,0.0,0.0,0.0,0.0,0.0,0.0,0.0,0.0,0.0,94.54117756296748,361.7337795662965,629.453827923817,843.2864404281044,1134.340455027722,1120.668524592407,647.4013296697757,765.8182455324792,742.8704221151172,162.02631066092573,641.4014645987625,479.4285497415945,126.4262864263524,0.0,0.0,0.0,0.0,0.0,0.0,0.0,0.0,0.0,0.0,0.0,102.8312016805134,457.5486423993857,718.4867725113451,473.8141763269781,648.8124114593227,1054.926569136635,506.88701623980177,465.3294528762184,1359.8908417834616,1153.5329906369082,863.2525640234379,489.6173807342298,125.70153606559296,0.0,0.0,0.0,0.0,0.0,0.0,0.0,0.0,0.0,0.0,0.0,0.0,0.0,7.946858403152178,133.40485751014313,337.33254841738454,548.391834967966,760.7137369269146,993.9654916221888,284.03051290047,92.89697750823468,63.72593827975129,75.30826951679387,21.024923313747745,0.0,0.0,0.0,0.0,0.0,0.0,0.0,0.0,0.0,0.0,0.0,104.62321694808752,265.83882302757075,624.1585269950695,1171.3007699214386,1384.1748626314422,1507.2573996395556,1237.3683095464648,981.5145018215763,971.724185852108,1048.789958714535,888.639664036851,503.4508009174948,128.46835033591364,0.0,0.0,0.0,0.0,0.0,0.0,0.0,0.0,0.0,0.0,0.0,110.74029232003213,490.8578564190877,897.4857859154828,1213.1468008589811,1437.5563406856547,1573.6948028808542,1624.4162582722613,1575.3989104227298,1436.0013506932971,1089.2665826361952,915.46454374169,415.5671684474335,125.22553201014355,0.0,0.0,0.0,0.0,0.0,0.0,0.0,0.0,0.0,0.0,0.0,115.48405366606322,501.11766476062047,898.8239368511169,1188.3802642721662,1391.439296615838,1508.9764840532168,1553.9266344604273,1524.3101960884042,1415.7806202776069,1208.0025709847675,912.8390330008256,526.0600167988325,139.17160431597037,0.0,0.0,0.0,0.0,0.0,0.0,0.0,0.0,0.0,0.0,0.0,112.96728803772965,491.2062314801895,884.3595345478377,1175.718295929877,1374.4353377923774,1050.9323025482263,1532.0441224448643,1473.1765511387216,1356.8160248890267,1155.732637284388,871.7978461296789,503.4130331538613,138.97430030940242,0.0,0.0,0.0,0.0,0.0,0.0,0.0,0.0,0.0,0.0,0.0,113.4322222314244,469.8400959570635,857.0846975210898,1159.4677388740706,1376.3960056596252,1495.6106027370008,1507.9600102768056,725.5766933810205,1310.9666110063365,751.308912613843,758.6423704421204,492.862803733354,141.95209312139974,0.0,0.0,0.0,0.0,0.0,0.0,0.0,0.0,0.0,0.0,0.0,114.91688604322272,464.8925189210794,845.1032000925417,1130.7264707490024,1330.9835257320738,1284.8104811851454,1494.3544990120188,1458.4751235602257,1068.3634278017482,931.9325910225584,862.0296698837197,500.7679873628416,140.94864271175882,0.0,0.0,0.0,0.0,0.0,0.0,0.0,0.0,0.0,0.0,0.0,111.63109060711112,494.4269100824503,904.1413775033736,932.6925044735972,1428.5838921493523,1190.7661450644598,1081.1712578518632,1545.9485199770268,989.8468518811252,1195.578279086034,693.2084176104624,522.6016617530164,142.7608441978267,0.0,0.0,0.0,0.0,0.0,0.0,0.0,0.0,0.0,0.0,0.0,112.87807797535405,481.7968489887482,870.7520697780351,1158.4154508390416,1370.0113001005534,946.7141123066908,1227.7199482747912,1476.3562061356563,1364.038132931419,1162.8310233424645,876.3638385192974,506.0626371232505,145.05360791771352,0.0,0.0,0.0,0.0,0.0,0.0,0.0,0.0,0.0,0.0,0.0,112.15137410957904,466.0073191166052,848.291320277877,1140.857998927849,1360.010656757747,1490.3335345217315,1537.7646362986577,1199.902688022066,1355.546246628936,1146.5583265631485,690.6336980000018,502.75991131033777,145.54784468664116,0.0,0.0,0.0,0.0,0.0,0.0,0.0,0.0,0.0,0.0,0.0,116.26350216725734,461.1372311129035,831.084196932802,1117.581986667879,1067.2753255081016,1440.646785620214,418.9395692725667,998.9306502033126,552.1002386557693,821.7835595538915,726.6107487025713,443.1923340402988,139.5948637360006,0.0,0.0,0.0,0.0,0.0,0.0,0.0,0.0,0.0,0.0,0.0,114.25399667462152,469.795816510045,844.766546061533,1126.7120179421,1324.168397901249,1430.6949799027952,1462.119712750855,1429.4304109894126,944.9240505441325,753.0214853441189,846.8600522698363,1.398058422776772,0.0,0.0,0.0,0.0,0.0,0.0,0.0,0.0,0.0,0.0,0.0,0.0,117.6837003135434,457.6417594717924,818.6905099459782,1093.0108005826164,1291.540957131965,1399.0449428096117,1429.4147829492883,1289.4096831600275,1062.7249611586074,963.1990899643606,822.2550054309714,412.5542125451568,111.30745994287264,0.0,0.0,0.0,0.0,0.0,0.0,0.0,0.0,0.0,0.0,0.0,115.28414498614126,463.3531569688464,832.9712827777983,1113.445765381676,1290.7126710053824,1405.67123182227,860.4896567631481,1188.486404711343,1289.713778774111,1096.258177086756,828.8331079865795,487.68080609550697,154.4493158740461,0.0,0.0,0.0,0.0,0.0,0.0,0.0,0.0,0.0,0.0,0.0,119.15273608521754,349.25609186380524,801.6689695773781,1064.1829270685269,1246.7933200780303,1358.5325046293335,1400.2456972258203,1194.5878520431634,1070.4634456934368,725.8645097866411,508.1939110951874,341.6927716120344,114.48451026645336,0.0,0.0,0.0,0.0,0.0,0.0,0.0,0.0,0.0,0.0,0.0,59.90227779603205,321.05724696471447,485.5964162439427,788.7042079576828,1190.2478150670072,1233.713301662419,1304.4575322946102,1177.9850129162237,1193.8520318206492,972.8253115125252,530.3512161496006,447.8026058769358,107.28649545258544,0.0,0.0,0.0,0.0,0.0,0.0,0.0,0.0,0.0,0.0,0.0,61.8740155250344,153.12223480016672,509.6629468668615,763.3412011727945,940.8405738933484,969.455515360746,1196.1493537189056,1242.703331743861,1182.6884018252672,952.9151883943032,691.1370511256687,496.6871153854117,69.92896787237892,0.0,0.0,0.0,0.0,0.0,0.0,0.0,0.0,0.0,0.0,0.0,0.0,216.279051952062,447.6717210408957,285.7072713721282,492.7032674904195,759.7083330122581,696.7201684600365,1429.5189698834497,1235.5118286133782,924.7189481685664,358.63421827499815,272.3394365508965,97.47208625459218,0.0,0.0,0.0,0.0,0.0,0.0,0.0,0.0,0.0,0.0,0.0,103.73502333436258,458.5696743541664,571.2797508981853,1103.0485605207175,777.5978807760896,770.8205207088979,749.5592232882718,1045.973655650488,1033.511595988121,232.37007276493424,238.88761666506127,373.2496916328112,159.02442462040364,0.0,0.0,0.0,0.0,0.0,0.0,0.0,0.0,0.0,0.0,0.0,38.76405119138391,152.58176507920504,222.8565033393317,606.8048907738302,1081.0644662443478,791.6709309079256,1173.3278569592144,408.4844104294815,423.9242629038457,293.6632461320195,165.6598299898006,151.243614143571,25.89240664409538,0.0,0.0,0.0,0.0,0.0,0.0,0.0,0.0,0.0,0.0,0.0,120.39776994844496,461.704398735744,407.0088629744223,726.5332596702889,1109.048425591731,1178.97739346411,1217.2231146580414,1174.2499113265417,1356.7736989470236,1157.985679735626,612.4296828818626,517.5368744161008,168.63957630681344,0.0,0.0,0.0,0.0,0.0,0.0,0.0,0.0,0.0,0.0,0.0,115.67419482090756,492.4108929064294,885.8617799047757,875.355829931287,1385.2427787065951,760.295035685254,1179.9899602304902,1510.2573321750622,1380.2287825000833,1167.2133862606236,877.4337080994662,157.921345454971,150.94212320284177,0.0,0.0,0.0,0.0,0.0,0.0,0.0,0.0,0.0,0.0,0.0,114.495580128208,469.3256729696423,850.2786860470035,1137.3019686312566,1351.4035136593477,1161.3398478472811,1505.6665953885804,1468.442557317768,1350.958114515808,871.9638940559985,657.3622517439331,516.668215852531,143.84373714476558,0.0,0.0,0.0,0.0,0.0,0.0,0.0,0.0,0.0,0.0,0.0,111.27425035760872,468.3443622835106,847.6049888490894,1133.0218391422432,1342.7188815286656,1462.8991612520492,1087.4140087131398,1471.294023472095,1356.851187979306,1162.148598923708,890.0930717684009,532.5580256488043,165.5953643242883,0.0,0.0,0.0,0.0,0.0,0.0,0.0,0.0,0.0,0.0,0.0,109.43079279129245,451.3495198167891,817.3061260583102,1098.6004296003696,1288.5905133901847,1399.541133083555,1105.8270958211317,1407.7692962089425,1298.6816691320437,1122.8173801094836,861.245663204156,519.7834051839535,168.09715308083622,0.0,0.0,0.0,0.0,0.0,0.0,0.0,0.0,0.0,0.0,0.0,113.35668670415744,453.60712044639655,826.4426690159166,1110.8716969395537,1321.6470740945456,1449.3516039693895,1115.2228037774642,778.4111900308861,1350.7386707857308,1152.5620986441927,890.8399618526698,407.4744483364556,124.74692328134016,0.0,0.0,0.0,0.0,0.0,0.0,0.0,0.0,0.0,0.0,0.0,115.25809825260094,467.3122604669753,854.5412339908771,1143.5141145806233,1355.1477316057687,1488.1599346077917,1544.9828373310193,1512.7806094867808,1398.6086600228111,1207.6014512882466,932.1761279811604,564.3806223516925,180.16200005671328,0.0,0.0,0.0,0.0,0.0,0.0,0.0,0.0,0.0,0.0,0.0,113.14440582580384,485.10673765338464,870.4219274304115,1154.5383945515646,1346.3120284205531,1311.797501806273,719.2004530103497,1490.5021871214049,1179.9059595148224,1181.8353713018216,910.7370616041214,533.6565466358675,156.1462605641981,0.0,0.0,0.0,0.0,0.0,0.0,0.0,0.0,0.0,0.0,0.0,86.86650752531168,196.8026069472864,547.9067145557775,908.3466226334584,1308.4387755162484,1245.5502397198184,1163.114932738054,900.244134997403,646.4818799758024,897.9826273577644,553.1219217788883,384.8496044149936,85.82724285705284,0.0,0.0,0.0,0.0,0.0,0.0,0.0,0.0,0.0,0.0,0.0,0.0,121.87331740350416,136.07204302467207,313.327878786624,480.0224152663138,574.6827566352283,703.0338966702105,1034.1035080078248,877.8035717157387,874.8707095190983,582.1822623898255,493.1135035436796,143.53378101563575,0.0,0.0,0.0,0.0,0.0,0.0,0.0,0.0,0.0,0.0,0.0,6.294193160018761,119.59813522875704,282.22938127615674,860.8907764596693,990.9434193631728,914.3256503176394,545.0865044816992,1233.148087544594,1364.9999085673956,927.3132028291824,842.1149885871283,519.6479621695439,181.1706598130622,0.0,0.0,0.0,0.0,0.0,0.0,0.0,0.0,0.0,0.0,0.0,106.73495586986914,443.80573461517344,814.1245175563599,1113.0029709114904,1343.9326593116448,1108.5633051795426,1179.4716302330376,1328.5019231940198,1264.6568211083215,1066.3272244072336,694.289357052386,351.90113765482494,136.8606078826053,0.0,0.0,0.0,0.0,0.0,0.0,0.0,0.0,0.0,0.0,0.0,99.50828964910686,134.10030529566973,431.0135326051828,546.205211687256,1079.3453818306864,757.1336134017973,845.9516724376175,1053.5330688922277,1140.645066881157,728.5720677381573,610.3765491105468,459.8635458427818,166.79611874049715,0.0,0.0,0.0,0.0,0.0,0.0,0.0,0.0,0.0,0.0,0.0,103.25446110054364,203.87038809345268,834.9059039115057,627.2359485628585,624.9451383479873,1020.1411564935352,975.2294250182968,938.691718376272,578.1059485907651,941.2508099466086,130.53125163230712,519.0169800495296,153.96680013521166,0.0,0.0,0.0,0.0,0.0,0.0,0.0,0.0,0.0,0.0,0.0,65.20604391318007,85.01458477059478,286.64039560121023,663.7228640744798,647.1688625729283,1210.0120764774033,1204.9140795552237,1469.926569961228,1239.1277663971134,1082.2808487006807,748.9562414068133,495.1803118501041,180.85354083220884,0.6804709137409067,0.0,0.0,0.0,0.0,0.0,0.0,0.0,0.0,0.0,0.0,86.7799021362901,392.0899451708645,659.6348292453263,477.75569827996736,660.4103707364893,585.3547545350366,628.9022883411008,500.4580312337118,454.0434032331969,700.4240139694703,748.7921469855092,553.5822977942136,176.27192040246624,1.677409639996723,0.0,0.0,0.0,0.0,0.0,0.0,0.0,0.0,0.0,0.0,0.0,152.82530203780703,332.4162274616488,612.2551697671424,555.9245503078271,816.3091873320544,965.6715761456755,898.9391936470328,944.6446993269124,821.9496074802111,409.9847022814041,351.8106252557724,3.23695781072349,0.0,0.0,0.0,0.0,0.0,0.0,0.0,0.0,0.0,0.0,0.0,92.81948847595224,445.0755128752641,828.8461313533497,98.3537681849321,406.9359321205094,1144.3117957952957,1261.7806105571317,1236.9053288577857,1354.8507988434094,1169.3778698178244,902.564247787507,553.4051800061394,182.20276162959752,1.6214091628850316,0.0,0.0,0.0,0.0,0.0,0.0,0.0,0.0,0.0,0.0,95.83700255659848,440.52059034740034,820.168010906053,1105.8870033082744,1296.233927347592,1418.6874357407066,1463.7632616372491,1443.6161132438103,1356.3751839238566,1177.5285439109296,847.4649876563103,473.6546400840437,170.26163663803695,0.6316332883528033,0.0,0.0,0.0,0.0,0.0,0.0,0.0,0.0,0.0,0.0,82.44246983348802,441.15808415079965,823.5137138293074,1108.953355014309,1316.7867536159215,1440.1974794666432,1490.417535237399,1438.7108621498292,1337.8937241403212,1155.7547770078977,835.2067436838964,465.2695453890756,124.4499905189805,0.0,0.0,0.0,0.0,0.0,0.0,0.0,0.0,0.0,0.0,0.0,90.86533229208958,395.13220364837406,621.8149721447791,914.7157001524056,1184.819675797204,1246.2372223169443,967.2981946552688,1011.7182940349336,555.711618261135,1043.760334467899,727.6656414109544,403.44241398441375,155.30234639749165,0.0,0.0,0.0,0.0,0.0,0.0,0.0,0.0,0.0,0.0,0.0,4.586178608112159,382.5190729314732,569.4896891356267,793.6823899055769,1262.162195203497,1386.162228400569,1436.492982788871,1410.90402059052,1317.6684355462614,921.4396644158396,614.0048590927136,22.05051344689792,41.918961791455374,0.0,0.0,0.0,0.0,0.0,0.0,0.0,0.0,0.0,0.0,0.0,17.54442854442225,302.8662082601537,638.2999498024487,951.7339690282494,1145.2559898861325,1144.1880738109792,1261.058464869726,1238.0240360633425,978.5614534064424,843.4902561180571,731.6377682758534,462.90319964693737,170.66470983957342,0.0,0.0,0.0,0.0,0.0,0.0,0.0,0.0,0.0,0.0,0.0,95.05494938205034,405.68894475226654,805.4861183777123,1083.6059762695447,1263.2183902485572,1383.1180164180437,1249.2124104555876,857.3308391530458,1058.451343352979,985.405232644162,680.1192828381124,449.0163836599148,116.93290321924364,0.0,0.0,0.0,0.0,0.0,0.0,0.0,0.0,0.0,0.0,0.0,99.14233304286532,409.4767909773677,770.1407009634955,866.5468246479502,594.2699002575503,1176.3102079495811,1247.349417839116,1023.0505766299892,1186.102477424065,1013.9934762096808,652.4810938784769,204.6036036426127,152.5973931193292,0.0,0.0,0.0,0.0,0.0,0.0,0.0,0.0,0.0,0.0,0.0,92.44702018632562,414.4771126487711,784.3928223884212,1068.8993393443404,1279.9058812595028,1402.0937129705064,947.3411874166744,1414.7726116895967,1328.825553858258,1152.6402388448137,892.8846304355849,549.7189160418454,185.03404156543047,0.0,0.0,0.0,0.0,0.0,0.0,0.0,0.0,0.0,0.0,0.0,79.78830768572924,421.2121467739598,799.7857907424128,1089.2796060029652,1289.7756397662693,1412.5944535972872,1216.1356635327331,1018.5685849560382,429.1173304034474,952.0621578708576,794.2384876666628,367.99215846769727,146.94785661443345,0.0,0.0,0.0,0.0,0.0,0.0,0.0,0.0,0.0,0.0,0.0,72.35261642830586,414.2114359666598,430.2119443804795,849.9290086492249,1259.4898003422602,1067.703143106501,859.9335590020625,238.3692866676089,914.01113601014,1024.1777490239465,882.8442658241295,470.5401019209597,176.85471606543092,0.6290286149987712,0.0,0.0,0.0,0.0,0.0,0.0,0.0,0.0,0.0,0.0,86.77339045290503,413.3011026294256,785.1240844325656,1077.0545716158151,911.8713968498026,1043.5037741425267,1270.0315645743667,1089.6006319938497,657.2489484530329,86.15087352129133,409.8004216416063,406.6455110415348,165.6357367612758,0.0,0.0,0.0,0.0,0.0,0.0,0.0,0.0,0.0,0.0,0.0,38.46711842902423,294.70251080027833,544.9465032889199,927.4655762203932,1113.5434406324518,1073.9393822843929,758.3630192249004,1237.456868440502,1060.1196366362367,878.6566022391842,487.5414560710662,423.6494698649954,117.46230307845066,0.0,0.0,0.0,0.0,0.0,0.0,0.0,0.0,0.0,0.0,0.0,72.49717579945467,318.13089645145925,541.391124160666,712.1307183591678,632.7057626063261,1407.241849854751,1138.944215180974,1459.141919938858,1179.10827830015,951.0254978759529,691.9236624785863,468.6569230859944,177.6563042901343,0.0,0.0,0.0,0.0,0.0,0.0,0.0,0.0,0.0,0.0,0.0,75.51208520674689,366.4501918421103,737.369351991401,799.2010415744326,1310.7601906430295,1444.913891742457,1492.5533673877055,1307.7739326426315,1190.666516308668,1026.4666057338022,743.3425191605354,553.1154100955033,186.2263307932387,0.0,0.0,0.0,0.0,0.0,0.0,0.0,0.0,0.0,0.0,0.0,75.20864076100216,409.1225554012194,794.6969101769723,649.0917626765425,393.73805223562834,1428.1319813224277,265.9345447733315,1242.6922618821063,1121.8158832048582,963.9433753752752,648.606642264354,166.50374415650705,106.8788640726794,0.0,0.0,0.0,0.0,0.0,0.0,0.0,0.0,0.0,0.0,0.0,79.73491188197157,398.9845155389877,771.8643435555264,1064.8119556835254,889.5682300875636,847.7951300039339,924.3354100171848,1422.5026310360256,1313.1467226036616,871.0665840855345,264.48764872516654,359.4625044015804,145.2378885575113,0.0,0.0,0.0,0.0,0.0,0.0,0.0,0.0,0.0,0.0,0.0,80.1028219932286,398.4108362327621,769.4341833162143,1059.3773047303373,1253.202770033965,1380.7738103994147,1427.748443171046,1398.887360071693,1303.0796600903273,1124.0096693372918,870.2044372053498,391.6803602859429,7.663600175901179,0.0,0.0,0.0,0.0,0.0,0.0,0.0,0.0,0.0,0.0,0.0,81.88181389403259,255.8713892700281,463.1981789042814,696.0976515284228,969.1410010532464,832.9563059060125,1144.9232428651546,1441.282977086936,1337.8735379218274,422.36862174315,94.12442982632234,287.65947405097535,143.98113366419076,0.0,0.0,0.0,0.0,0.0,0.0,0.0,0.0,0.0,0.0,0.0,81.37846076836587,184.0813822861932,357.0303906572529,667.4892217444104,631.5694738556296,1058.6108795959133,1179.3674432988762,1220.4424909236252,1228.4446986355506,1146.3571155465493,876.7890514443432,434.01151163567386,169.03157964659525,0.0,0.0,0.0,0.0,0.0,0.0,0.0,0.0,0.0,0.0,0.0,78.08680481720772,187.5221557868697,786.6373996512583,839.7642708851142,1119.560887248605,1261.22255929103,1214.4803936162457,1286.4898443301577,1371.4555914753646,863.9968494343526,686.0970081856162,170.82619958752346,134.95138231409973,0.0,0.0,0.0,0.0,0.0,0.0,0.0,0.0,0.0,0.0,0.0,73.29225234077298,398.8829332781805,789.275933758893,1099.661182823799,1293.7985577615718,1430.478140846072,1482.9844486533295,1465.6353706104596,1347.1761288057537,1152.872705941661,576.9006359961867,133.22057687034533,49.861262016238,0.0,0.0,0.0,0.0,0.0,0.0,0.0,0.0,0.0,0.0,0.0,63.74156631987549,334.8574575627154,728.2015529535464,723.237045540761,908.9027203945444,1418.2843625391706,1470.3192244693482,1432.7976024678376,1321.6229808660207,1137.8912759776065,886.2362016994177,540.9763299290364,171.11857417151353,0.0,0.0,0.0,0.0,0.0,0.0,0.0,0.0,0.0,0.0,0.0,70.14189991907105,392.9475338726796,774.6135762807073,1065.2684246888196,1279.7170424413357,1410.6162041848995,650.2749355476117,1392.7572613329778,819.4790748039115,959.3155219934988,732.6014974168453,510.6598855931174,177.82300338479237,0.0,0.0,0.0,0.0,0.0,0.0,0.0,0.0,0.0,0.0,0.0,71.14795500206598,369.33942576007047,722.3840150173155,1007.9317501465092,1209.032719296287,1337.793444216191,1049.2418695414594,1356.8778858811847,1114.2877260433668,1071.2656850864787,813.0520433028372,494.7642152817974,95.36295200616463,0.0,0.0,0.0,0.0,0.0,0.0,0.0,0.0,0.0,0.0,0.0,63.14770079515615,358.4636121703091,703.7006930488427,988.9007042852732,1203.86830320358,1328.3313170893305,1035.4566358152445,617.1532580094,1243.7823176807692,1067.206952832558,814.6187543252876,474.82218491498855,0.0,0.0,0.0,0.0,0.0,0.0,0.0,0.0,0.0,0.0,0.0,0.0,68.2763026292455,368.48444173160937,408.8366925006144,533.5810111086006,1254.9264126259957,1393.0717756404774,1441.200929876284,1416.101646268491,1307.282300547058,1116.979655954759,849.2420260520988,438.66801642434496,135.30105971187857,0.0,0.0,0.0,0.0,0.0,0.0,0.0,0.0,0.0,0.0,0.0,46.50969857793709,241.1855897316562,255.09845245221908,725.3038538471855,1021.2930732843558,459.03721322121504,252.1870788107496,556.8394418234309,1014.8106924745082,412.5542125451568,33.1301427266123,192.8571779842661,74.10556159556951,0.0,0.0,0.0,0.0,0.0,0.0,0.0,0.0,0.0,0.0,0.0,66.61907920774253,375.0618931188791,760.7137369269146,1057.3013800671738,1269.9827269489788,1402.713625228766,1451.1351540485628,1410.9378813441226,1001.152436574302,1125.2410286654108,858.8174564698596,514.636570636386,150.5305848129047,0.0,0.0,0.0,0.0,0.0,0.0,0.0,0.0,0.0,0.0,0.0,65.10836866240386,366.2932602725298,731.6045586905896,1015.5797222822862,510.9437949887069,1031.9833038976424,1252.4161586810471,1226.599287564219,916.1756195673408,992.1357085909812,779.5565951383218,379.43513968029913,101.45984115961548,0.0,0.0,0.0,0.0,0.0,0.0,0.0,0.0,0.0,0.0,0.0,61.4683376501439,360.2627902896068,321.1926899791241,177.38606942965347,721.9496857355307,1224.3019656659626,1136.2744249930909,1153.6436892544546,1020.936884203192,860.5873320139244,143.34559336580693,173.46929187352757,97.1881768590027,0.0,0.0,0.0,0.0,0.0,0.0,0.0,0.0,0.0,0.0,0.0,58.521800918395,363.0471861050672,739.5670451338658,1040.2336067465394,1263.71913870087,1400.5647697116897,1201.1346985185232,939.7459599163165,1105.164857620869,1167.357294463434,896.2811244892429,508.3091678911033,135.7262726369243,0.0,0.0,0.0,0.0,0.0,0.0,0.0,0.0,0.0,0.0,0.0,59.18664379201171,357.67960549074536,737.1674898064637,1037.2050228041385,291.4369015826605,1021.834194173656,1461.2399843255305,565.7077034255719,964.0189109025422,797.3575840081162,813.0806947097315,426.8974975374736,124.48059543089036,0.0,0.0,0.0,0.0,0.0,0.0,0.0,0.0,0.0,0.0,0.0,57.81072509274421,358.6387764533677,743.9402916952859,1052.3564077045437,709.3372061869683,268.1074935189328,470.5401019209597,463.94246431519616,787.8068979872188,860.3659347788317,809.1704288369907,497.7374499154252,152.9587915472012,0.0,0.0,0.0,0.0,0.0,0.0,0.0,0.0,0.0,0.0,0.0,40.65374170973425,107.96696636632636,263.9094112405714,908.2574125710828,454.1899161093612,985.7750962604346,1008.6942682709024,1096.056966070157,165.00149879956896,205.799799880452,105.15522148064862,201.9181854146056,81.27883201257414,0.0,0.0,0.0,0.0,0.0,0.0,0.0,0.0,0.0,0.0,0.0,52.70816999219517,310.76878721628736,349.0652995406224,86.67180819209776,1001.48062541691,761.8988633029992,1271.6907415008852,1300.2457754811403,941.4741606867168,910.0214276001012,732.457589214035,479.6232490748084,147.30665036895135,0.0,0.0,0.0,0.0,0.0,0.0,0.0,0.0,0.0,0.0,0.0,27.024137216422364,175.60317051881844,614.7341676318425,561.0511986369008,873.9532133301407,1102.3596244185765,452.8074857267086,405.7221543375304,520.2730837745116,932.0406849667506,877.7573387637045,513.0568362471655,153.29544557820986,0.0,0.0,0.0,0.0,0.0,0.0,0.0,0.0,0.0,0.0,0.0,48.37269119440861,354.896512011962,748.2249793626687,1047.3892956184045,1256.3016801569247,1080.2140403942562,1435.671208345674,978.0958680444091,736.7930680118216,873.2440910095053,849.0160706386365,500.0393299920512,133.4843000474411,0.0,0.0,0.0,0.0,0.0,0.0,0.0,0.0,0.0,0.0,0.0,48.3147372122814,355.7762404372864,750.0638787506156,1057.934966860542,1278.8796399580142,1065.6845212571263,1055.8746702375026,655.6535860236883,446.2560810729792,535.3267934241405,730.1713371775332,4
...